@<TRIPOS>MOLECULE
Ammonium
    5     4     0     0     0
SMALL
USER_CHARGES

@<TRIPOS>ATOM
      1 N1          0.0000    0.0000    0.0000 N.4       1 AMM        -0.9130
      2 H1          1.0000    0.0000    0.0000 H         1 AMM         0.4782
      3 H2         -0.3338    0.0000    0.9426 H         1 AMM         0.4782
      4 H3         -0.3332    0.8165   -0.4715 H         1 AMM         0.4782
      5 H4         -0.3332   -0.8165   -0.4715 H         1 AMM         0.4782
@<TRIPOS>BOND
     1    1    2 1
     2    1    3 1
     3    1    4 1
     4    1    5 1
