@<TRIPOS>MOLECULE
Citrate
   19    18     0     0     0
SMALL
USER_CHARGES

@<TRIPOS>ATOM
      1 C1          0.4996    0.6601    2.3365 C.2       1 <0>         0.9143
      2 C2         -0.3530   -2.2526   -1.0756 C.2       1 <0>         0.9143
      3 C3          0.3164    1.5599   -0.6713 C.2       1 <0>         0.6860
      4 C4          0.5930   -0.2323    1.0877 C.3       1 <0>        -0.2145
      5 C5          0.0604   -0.7982   -1.3369 C.3       1 <0>        -0.2145
      6 C6         -0.1652    0.1927   -0.1810 C.3       1 <0>         0.1779
      7 O1          1.0726    0.2370    3.3772 O.co2     1 <0>        -0.8641
      8 O2         -1.5843   -2.4182   -0.8430 O.co2     1 <0>        -0.8641
      9 O3         -0.1444    1.7343    2.1568 O.co2     1 <0>        -0.8641
     10 O4          0.5795   -3.1029   -1.1059 O.co2     1 <0>        -0.8641
     11 O5         -0.4026    2.5455   -0.7826 O.2       1 <0>        -0.5990
     12 O6          1.6471    1.5896   -0.9388 O.3       1 <0>        -0.6213
     13 O7         -1.5591    0.2473    0.0922 O.3       1 <0>        -0.6102
     14 H1          1.6602   -0.3417    0.8509 H         1 <0>         0.0431
     15 H2          0.2302   -1.2147    1.4176 H         1 <0>         0.0431
     16 H3         -0.5122   -0.4747   -2.2171 H         1 <0>         0.0431
     17 H4          1.1180   -0.7843   -1.6340 H         1 <0>         0.0431
     18 H5          1.9832    2.4648   -1.2279 H         1 <0>         0.4055
     19 H6         -1.8191   -0.6365    0.3985 H         1 <0>         0.4452
@<TRIPOS>BOND
     1    1    4 1
     2    1    7 1
     3    1    9 2
     4    2    5 1
     5    2    8 1
     6    2   10 2
     7    3    6 1
     8    3   11 2
     9    3   12 1
    10    4    6 1
    11    5    6 1
    12    6   13 1
    13    4   14 1
    14    4   15 1
    15    5   16 1
    16    5   17 1
    17   12   18 1
    18   13   19 1
