@<TRIPOS>MOLECULE
CIT
   19    18     1     0     0
SMALL
bcc


@<TRIPOS>ATOM
      1 C1           0.5000     0.6600     2.3370 c          1 CIT       0.912653
      2 C2          -0.3530    -2.2530    -1.0760 c          1 CIT       0.912653
      3 C3           0.3160     1.5600    -0.6710 c          1 CIT       0.709153
      4 C4           0.5930    -0.2320     1.0880 c3         1 CIT      -0.204347
      5 C5           0.0600    -0.7980    -1.3370 c3         1 CIT      -0.204347
      6 C6          -0.1650     0.1930    -0.1810 c3         1 CIT       0.153853
      7 O1           1.0730     0.2370     3.3770 o          1 CIT      -0.865748
      8 O2          -1.5840    -2.4180    -0.8430 o          1 CIT      -0.865748
      9 O3          -0.1440     1.7340     2.1570 o          1 CIT      -0.865748
     10 O4           0.5790    -3.1030    -1.1060 o          1 CIT      -0.865748
     11 O5          -0.4030     2.5460    -0.7830 o          1 CIT      -0.599948
     12 O6           1.6470     1.5900    -0.9390 oh         1 CIT      -0.649048
     13 O7          -1.5590     0.2470     0.0920 oh         1 CIT      -0.630748
     14 H1           1.6600    -0.3420     0.8510 hc         1 CIT       0.045503
     15 H2           0.2300    -1.2150     1.4180 hc         1 CIT       0.045503
     16 H3          -0.5120    -0.4750    -2.2170 hc         1 CIT       0.045503
     17 H4           1.1180    -0.7840    -1.6340 hc         1 CIT       0.045503
     18 H5           1.9830     2.4650    -1.2280 ho         1 CIT       0.438053
     19 H6          -1.8190    -0.6360     0.3990 ho         1 CIT       0.443053
@<TRIPOS>BOND
     1     1     4 1   
     2     1     7 1   
     3     1     9 1   
     4     2     5 1   
     5     2     8 1   
     6     2    10 1   
     7     3     6 1   
     8     3    11 2   
     9     3    12 1   
    10     4     6 1   
    11     4    14 1   
    12     4    15 1   
    13     5     6 1   
    14     5    16 1   
    15     5    17 1   
    16     6    13 1   
    17    12    18 1   
    18    13    19 1   
@<TRIPOS>SUBSTRUCTURE
     1 CIT         1 TEMP              0 ****  ****    0 ROOT
