@<TRIPOS>MOLECULE
AMM
    5     4     1     0     0
SMALL
bcc


@<TRIPOS>ATOM
      1 N1           0.0000     0.0000     0.0000 n4         1 AMM      -0.913600
      2 H            1.0000     0.0000     0.0000 hn         1 AMM       0.478400
      3 H1          -0.3340     0.0000     0.9430 hn         1 AMM       0.478400
      4 H2          -0.3330     0.8160    -0.4710 hn         1 AMM       0.478400
      5 H3          -0.3330    -0.8160    -0.4710 hn         1 AMM       0.478400
@<TRIPOS>BOND
     1     1     2 1   
     2     1     3 1   
     3     1     4 1   
     4     1     5 1   
@<TRIPOS>SUBSTRUCTURE
     1 AMM         1 TEMP              0 ****  ****    0 ROOT
