@<TRIPOS>MOLECULE
SUL
    5     4     1     0     0
SMALL
bcc


@<TRIPOS>ATOM
      1 O1           0.2920     1.2470    -0.7300 o          1 SUL      -0.885600
      2 O2           1.2390    -0.7840     0.1480 o          1 SUL      -0.885600
      3 O3          -0.9940    -0.7880    -0.7520 o          1 SUL      -0.885600
      4 O4          -0.5380     0.3260     1.3340 o          1 SUL      -0.885600
      5 S1          -0.0000     0.0000     0.0000 s6         1 SUL       1.542400
@<TRIPOS>BOND
     1     1     5 1   
     2     2     5 1   
     3     3     5 1   
     4     4     5 1   
@<TRIPOS>SUBSTRUCTURE
     1 SUL         1 TEMP              0 ****  ****    0 ROOT
