@<TRIPOS>MOLECULE
Sulfate
    5     4     0     0     0
SMALL
USER_CHARGES

@<TRIPOS>ATOM
      1 O1          0.2918    1.2469   -0.7301 O.3       1 SUL        -0.8858
      2 O2          1.2393   -0.7845    0.1480 O.3       1 SUL        -0.8858
      3 O3         -0.9935   -0.7883   -0.7515 O.2       1 SUL        -0.8858
      4 O4         -0.5376    0.3258    1.3336 O.2       1 SUL        -0.8858
      5 S1         -0.0000    0.0000    0.0000 S.o2      1 SUL         1.5432
@<TRIPOS>BOND
     1    1    5 1
     2    2    5 1
     3    3    5 2
     4    4    5 2
